 16
0.102592 0.072464 -0.005531
C -0.825768 -1.702631 0.637999
C -1.346155 -0.896956 -0.321829
C -1.103846 0.507478 -0.443859
C -0.225938 1.242114 0.366113
C 1.959609 -0.287724 0.075365
C 1.561398 0.939066 -0.422801
H -1.991820 -1.333651 -1.091620
H -0.203651 -1.346693 1.443388
H -1.002496 -2.766151 0.652878
H 2.375770 -0.399553 1.060426
H 1.821249 -1.206511 -0.466234
H 1.282123 1.038171 -1.469379
H 1.978304 1.853375 -0.004314
H -0.213950 2.324767 0.272256
H 0.008633 0.899195 1.369462
H -1.593411 1.018350 -1.272173

