 14
-165.177075 -165.227630 -165.220538
N 1.039838 -1.230164 1.191248
B 1.937156 1.085588 -0.824178
B -2.115394 -0.021338 -0.675600
N -1.132739 0.581463 0.108031
H 0.465756 -1.767118 1.830152
H 1.846067 -0.811793 1.637036
H 1.282911 -1.746917 0.354873
H 1.980428 1.807925 0.126055
H 2.630348 0.112113 -0.857187
H 1.265885 1.369511 -1.764191
H -2.974682 0.644972 -1.180342
H -2.090421 -1.209815 -0.831349
H -0.374332 0.057301 0.562163
H -1.114479 1.579698 0.273656

