 22
-495.694283 -495.705122 -495.703780
C 3.012533 -1.207579 -0.774140
C 2.001984 -0.085749 -0.585180
N 1.103621 -0.293332 0.429419
C 0.001658 0.576312 0.900121
C -1.294996 -0.235957 0.690666
N -2.182256 0.210275 -0.239309
C -3.413987 -0.511711 -0.554936
O 2.025392 0.929834 -1.317267
C 0.001918 2.005561 0.347825
O -1.457588 -1.292601 1.348561
H 2.963269 -1.557414 -1.809689
H 2.859950 -2.058492 -0.103708
H 4.019098 -0.808072 -0.613646
H 1.132549 -1.180820 0.912899
H 0.108212 0.637099 1.991385
H -1.974829 1.056546 -0.747614
H -3.433874 -0.808511 -1.609271
H -4.296242 0.101686 -0.341245
H -3.439329 -1.405845 0.069615
H -0.829873 2.557148 0.801529
H -0.071342 2.041410 -0.740372
H 0.932356 2.514941 0.606633

