 11
-268.134472 -268.232639 -268.264809
H -0.288357 -0.167950 0.311661
C -0.241936 -0.222216 1.394658
C 0.993853 -0.539374 2.029998
H -1.064072 0.178801 1.975192
H 1.212255 -0.140931 3.017748
O 2.086114 -0.610953 1.115709
H 2.888402 -0.947027 1.559806
O -0.196233 -2.359213 3.477010
C 0.164034 -2.064358 2.295580
H -0.760438 -1.823719 1.484357
H 0.779448 -2.650056 1.600071

